Version 4
SHEET 1 932 680
WIRE 0 -208 -96 -208
WIRE 240 -208 80 -208
WIRE -96 -128 -96 -208
WIRE -96 -128 -144 -128
WIRE -64 -128 -96 -128
WIRE 48 -128 16 -128
WIRE 64 -128 48 -128
WIRE 176 -128 144 -128
WIRE 240 -80 240 -208
WIRE 736 -80 736 -112
WIRE 896 -80 896 -112
WIRE -144 -64 -144 -128
WIRE 48 -64 48 -128
WIRE 176 -16 176 -32
WIRE 464 32 384 32
WIRE 608 32 528 32
WIRE 272 80 240 80
WIRE 384 80 384 32
WIRE 384 80 352 80
WIRE 560 128 512 128
WIRE 416 144 416 128
WIRE 448 144 416 144
WIRE 560 160 512 160
WIRE 272 176 96 176
WIRE 384 176 384 80
WIRE 384 176 352 176
WIRE 448 176 384 176
WIRE 608 192 608 32
WIRE 608 192 512 192
WIRE 800 192 608 192
WIRE 432 304 384 304
WIRE 560 304 512 304
WIRE 96 352 96 176
WIRE 224 400 160 400
WIRE 272 400 224 400
WIRE 384 400 384 304
WIRE 384 400 352 400
WIRE 448 400 384 400
WIRE 224 416 224 400
WIRE 800 416 800 192
WIRE 800 416 512 416
WIRE 448 432 416 432
WIRE 560 448 560 304
WIRE 560 448 512 448
WIRE 576 448 560 448
WIRE 720 448 656 448
WIRE 96 464 96 448
WIRE 448 464 416 464
WIRE 224 496 224 480
FLAG 736 0 0
FLAG 896 0 0
FLAG 736 -112 V+
FLAG 896 -112 V-
FLAG 560 128 V+
FLAG 560 160 V-
FLAG 416 464 V+
FLAG 416 432 V-
FLAG -144 16 0
FLAG -144 -128 Vc
FLAG 240 80 Vc
FLAG 416 128 Vx
FLAG 48 -64 Vx
FLAG 224 496 0
FLAG 96 464 0
FLAG 720 448 0
FLAG 384 400 out
FLAG 176 -16 0
SYMBOL AutoGenerated\\LF347 480 160 R0
SYMATTR InstName U1
SYMBOL voltage 736 -96 R0
SYMATTR InstName V1
SYMATTR Value 5
SYMBOL voltage 896 16 R180
WINDOW 0 24 96 Left 2
WINDOW 3 24 16 Left 2
SYMATTR InstName V2
SYMATTR Value 5
SYMBOL AutoGenerated\\LF347 480 432 R180
SYMATTR InstName U2
SYMBOL res 368 160 R90
WINDOW 0 0 56 VBottom 2
WINDOW 3 32 56 VTop 2
SYMATTR InstName R1
SYMATTR Value 0.5k
SYMBOL res 672 432 R90
WINDOW 0 0 56 VBottom 2
WINDOW 3 32 56 VTop 2
SYMATTR InstName R2
SYMATTR Value 1k
SYMBOL res 528 288 R90
WINDOW 0 0 56 VBottom 2
WINDOW 3 32 56 VTop 2
SYMATTR InstName R3
SYMATTR Value 4k
SYMBOL cap 528 16 R90
WINDOW 0 0 32 VBottom 2
WINDOW 3 32 32 VTop 2
SYMATTR InstName C1
SYMATTR Value 71.2n
SYMBOL res 368 384 R90
WINDOW 0 0 56 VBottom 2
WINDOW 3 32 56 VTop 2
SYMATTR InstName R4
SYMATTR Value 20k
SYMBOL res 368 64 R90
WINDOW 0 0 56 VBottom 2
WINDOW 3 32 56 VTop 2
SYMATTR InstName R5
SYMATTR Value 1k
SYMBOL voltage -144 -80 R0
WINDOW 123 0 0 Left 0
WINDOW 39 0 0 Left 0
SYMATTR InstName V3
SYMATTR Value 4
SYMBOL res 32 -144 R90
WINDOW 0 0 56 VBottom 2
WINDOW 3 32 56 VTop 2
SYMATTR InstName R6
SYMATTR Value 1k
SYMBOL res 160 -144 R90
WINDOW 0 0 56 VBottom 2
WINDOW 3 32 56 VTop 2
SYMATTR InstName R7
SYMATTR Value 1k
SYMBOL diode 240 480 R180
WINDOW 0 24 64 Left 2
WINDOW 3 24 0 Left 2
SYMATTR InstName D1
SYMATTR Value 1N4148
SYMBOL npn 160 352 M0
SYMATTR InstName Q1
SYMATTR Value 2N3904
SYMBOL npn 240 -128 M0
SYMATTR InstName Q2
SYMATTR Value 2N3904
SYMBOL res 96 -224 R90
WINDOW 0 0 56 VBottom 2
WINDOW 3 32 56 VTop 2
SYMATTR InstName R8
SYMATTR Value 10k
TEXT 24 536 Left 2 !.tran 1ms
