Version 4
SHEET 1 880 680
WIRE 480 -80 480 -112
WIRE 640 -80 640 -112
WIRE 208 32 128 32
WIRE 352 32 272 32
WIRE 304 128 256 128
WIRE 160 144 160 128
WIRE 192 144 160 144
WIRE 304 160 256 160
WIRE 16 176 -16 176
WIRE 128 176 128 32
WIRE 128 176 96 176
WIRE 192 176 128 176
WIRE 352 192 352 32
WIRE 352 192 256 192
WIRE 464 192 352 192
WIRE 176 304 128 304
WIRE 320 304 256 304
WIRE -16 400 -16 176
WIRE -16 400 -96 400
WIRE 128 400 128 304
WIRE 128 400 -16 400
WIRE 192 400 128 400
WIRE 288 416 288 384
WIRE 288 416 256 416
WIRE 192 432 160 432
WIRE 320 448 320 304
WIRE 320 448 256 448
WIRE 352 448 320 448
WIRE 464 448 464 192
WIRE 464 448 432 448
WIRE 192 464 160 464
FLAG 480 0 0
FLAG 640 0 0
FLAG 480 -112 V+
FLAG 640 -112 V-
FLAG 304 128 V+
FLAG 304 160 V-
FLAG 160 464 V+
FLAG 160 432 V-
FLAG -96 400 Out
FLAG 288 384 0
FLAG 160 128 0
SYMBOL AutoGenerated\\LF347 224 160 R0
SYMATTR InstName U1
SYMBOL voltage 480 -96 R0
SYMATTR InstName V1
SYMATTR Value 5
SYMBOL voltage 640 16 R180
WINDOW 0 24 96 Left 2
WINDOW 3 24 16 Left 2
SYMATTR InstName V2
SYMATTR Value 5
SYMBOL AutoGenerated\\LF347 224 432 R180
SYMATTR InstName U2
SYMBOL res 112 160 R90
WINDOW 0 0 56 VBottom 2
WINDOW 3 32 56 VTop 2
SYMATTR InstName R1
SYMATTR Value 5k
SYMBOL res 448 432 R90
WINDOW 0 0 56 VBottom 2
WINDOW 3 32 56 VTop 2
SYMATTR InstName R3
SYMATTR Value 1k
SYMBOL res 272 288 R90
WINDOW 0 0 56 VBottom 2
WINDOW 3 32 56 VTop 2
SYMATTR InstName R2
SYMATTR Value 5k
SYMBOL cap 272 16 R90
WINDOW 0 0 32 VBottom 2
WINDOW 3 32 32 VTop 2
SYMATTR InstName C1
SYMATTR Value 25n
TEXT -154 526 Left 2 !.tran 0.5ms
