Version 4
SHEET 1 880 680
WIRE 240 32 80 32
WIRE 432 32 240 32
WIRE 80 48 80 32
WIRE 432 112 432 32
WIRE 240 160 240 32
WIRE 80 176 80 128
WIRE 192 176 80 176
WIRE 240 400 240 256
WIRE 432 400 432 192
WIRE 432 400 240 400
WIRE 240 416 240 400
FLAG 240 416 0
SYMBOL voltage 432 96 R0
WINDOW 123 0 0 Left 0
WINDOW 39 0 0 Left 0
SYMATTR InstName Vsd
SYMATTR Value 1.8
SYMBOL pmos 192 256 M180
SYMATTR InstName M1
SYMATTR Value pch_tt
SYMATTR Value2 L = 180n W = 270n
SYMBOL voltage 80 32 R0
WINDOW 123 0 0 Left 0
WINDOW 39 0 0 Left 0
SYMATTR InstName Vsg
SYMATTR Value 0.9
TEXT -456 96 Left 2 !.include TSMC180.lib
TEXT -456 128 Left 2 !;.step param Vsg list 0.4 0.5 0.6 0.7 0.8 0.9
TEXT -456 160 Left 2 !.dc Vsd 0 1.8 1m
TEXT -456 240 Left 2 !;.dc Vsg 0 0.4 1m
TEXT 152 -64 Left 3 ;Short Channel
TEXT 128 -24 Left 2 ;W = 270nm, L = 180nm
