Version 4
SHEET 1 880 680
WIRE 192 96 96 96
WIRE 352 96 272 96
WIRE 512 96 416 96
WIRE 96 144 96 96
WIRE 512 160 512 96
WIRE 512 272 512 240
WIRE 96 368 96 224
WIRE 512 368 512 336
FLAG 96 368 0
FLAG 512 368 0
SYMBOL voltage 96 128 R0
WINDOW 123 0 0 Left 0
WINDOW 39 0 0 Left 0
SYMATTR InstName V1
SYMATTR Value 2.5
SYMBOL res 288 80 R90
WINDOW 0 0 56 VBottom 2
WINDOW 3 32 56 VTop 2
SYMATTR InstName R1
SYMATTR Value 2k
SYMBOL res 528 256 R180
WINDOW 0 36 76 Left 2
WINDOW 3 36 40 Left 2
SYMATTR InstName R2
SYMATTR Value 2k
SYMBOL diode 352 112 R270
WINDOW 0 32 32 VTop 2
WINDOW 3 0 32 VBottom 2
SYMATTR InstName D1
SYMBOL diode 496 272 R0
SYMATTR InstName D2
TEXT 62 392 Left 2 !.tran 10ms
