Version 4
SHEET 1 1956 952
WIRE 1104 -176 1040 -176
WIRE 1264 -176 1184 -176
WIRE -496 -112 -512 -112
WIRE -384 -112 -384 -192
WIRE -384 -112 -416 -112
WIRE -368 -112 -384 -112
WIRE -256 -112 -256 -192
WIRE -256 -112 -288 -112
WIRE -240 -112 -256 -112
WIRE 1216 -80 1168 -80
WIRE -384 -64 -384 -112
WIRE -256 -64 -256 -112
WIRE 1072 -64 1072 -80
WIRE 1104 -64 1072 -64
WIRE 1216 -48 1168 -48
WIRE 1040 -32 1040 -176
WIRE 1040 -32 1008 -32
WIRE 1104 -32 1040 -32
WIRE -512 -16 -512 -112
WIRE 1264 -16 1264 -176
WIRE 1264 -16 1168 -16
WIRE -784 32 -784 0
WIRE -624 32 -624 0
WIRE -384 32 -384 0
WIRE -256 32 -256 0
WIRE -512 48 -512 -16
WIRE -208 144 -288 144
WIRE -64 144 -144 144
WIRE -192 240 -240 240
WIRE -96 256 -96 240
WIRE -96 256 -128 256
WIRE -192 272 -240 272
WIRE -64 288 -64 144
WIRE -64 288 -128 288
WIRE -32 288 -64 288
WIRE 80 288 48 288
WIRE -288 304 -288 144
WIRE -288 304 -400 304
WIRE -192 304 -288 304
WIRE 944 304 944 256
WIRE 608 352 608 304
WIRE 288 368 224 368
WIRE 448 368 368 368
WIRE -192 416 -256 416
WIRE -64 416 -112 416
WIRE 944 432 944 384
WIRE 960 432 944 432
WIRE 1232 432 1120 432
WIRE 400 464 352 464
WIRE 864 464 848 464
WIRE 960 464 944 464
WIRE 256 480 256 464
WIRE 288 480 256 480
WIRE 400 496 352 496
WIRE 848 496 848 464
WIRE 960 496 848 496
WIRE 1152 496 1120 496
WIRE -64 512 -64 416
WIRE -64 512 -128 512
WIRE 80 512 80 288
WIRE 80 512 -64 512
WIRE 112 512 80 512
WIRE 224 512 224 368
WIRE 224 512 192 512
WIRE 288 512 224 512
WIRE -224 528 -224 496
WIRE -192 528 -224 528
WIRE 448 528 448 368
WIRE 448 528 352 528
WIRE 528 528 448 528
WIRE 608 528 608 432
WIRE 608 528 592 528
WIRE 960 528 608 528
WIRE -96 544 -128 544
WIRE -400 560 -400 304
WIRE -368 560 -400 560
WIRE -256 560 -256 416
WIRE -256 560 -288 560
WIRE -192 560 -256 560
WIRE 448 560 448 528
WIRE 704 560 688 560
WIRE 960 560 784 560
WIRE 1344 560 1120 560
WIRE 1504 560 1424 560
WIRE -96 576 -128 576
WIRE 864 592 832 592
WIRE 960 592 944 592
WIRE 1168 624 1120 624
WIRE 1232 624 1168 624
WIRE 1392 624 1312 624
WIRE 448 672 448 640
WIRE 1168 672 1168 624
WIRE 1168 768 1168 736
WIRE 1280 768 1168 768
WIRE 1440 768 1360 768
WIRE 1168 800 1168 768
WIRE 1168 912 1168 880
FLAG 832 592 Vdd
FLAG 688 560 Vdd
FLAG 448 672 0
FLAG -512 128 0
FLAG -512 -16 Vdd
FLAG -624 112 0
FLAG -784 112 0
FLAG -624 0 V+
FLAG -784 0 V-
FLAG -240 240 V+
FLAG -240 272 V-
FLAG -96 576 V+
FLAG -96 544 V-
FLAG -224 496 0
FLAG -96 240 0
FLAG 400 464 V+
FLAG 400 496 V-
FLAG 256 464 0
FLAG 608 304 Vbias1
FLAG 944 256 Vbias1
FLAG 1232 432 0
FLAG 1504 560 Vbias2
FLAG 1392 624 Vbias2
FLAG 1440 768 0
FLAG 1168 912 0
FLAG -160 -112 0
FLAG -384 32 0
FLAG -256 32 0
FLAG -384 -192 Vbias2
FLAG -256 -192 Vbias1
FLAG 944 592 Vo+
FLAG 1152 496 Vo-
FLAG 1216 -80 V+
FLAG 1216 -48 V-
FLAG 1072 -80 Vo+
FLAG 1008 -32 Vo-
SYMBOL AutoGenerated\\MC1496 1040 528 R0
SYMATTR InstName U1
SYMBOL res 960 448 R90
WINDOW 0 0 56 VBottom 2
WINDOW 3 32 56 VTop 2
SYMATTR InstName RE1
SYMATTR Value 100
SYMBOL res 960 576 R90
WINDOW 0 0 56 VBottom 2
WINDOW 3 32 56 VTop 2
SYMATTR InstName RL2
SYMATTR Value 1k
SYMBOL res 800 544 R90
WINDOW 0 0 56 VBottom 2
WINDOW 3 32 56 VTop 2
SYMATTR InstName R1
SYMATTR Value 100k
SYMBOL res 432 544 R0
SYMATTR InstName R2
SYMATTR Value 10k
SYMBOL cap 592 512 R90
WINDOW 0 0 32 VBottom 2
WINDOW 3 32 32 VTop 2
SYMATTR InstName C1
SYMATTR Value 10µ
SYMBOL voltage -512 32 R0
WINDOW 123 0 0 Left 0
WINDOW 39 0 0 Left 0
SYMATTR InstName V1
SYMATTR Value 12
SYMBOL AutoGenerated\\LF347 -160 272 M0
SYMATTR InstName U2
SYMBOL voltage -624 16 M0
WINDOW 123 0 0 Left 0
WINDOW 39 0 0 Left 0
SYMATTR InstName V2
SYMATTR Value 15
SYMBOL voltage -784 128 M180
WINDOW 0 24 96 Left 2
WINDOW 3 24 16 Left 2
WINDOW 123 0 0 Left 0
WINDOW 39 0 0 Left 0
SYMATTR InstName V3
SYMATTR Value 15
SYMBOL AutoGenerated\\LF347 -160 544 M180
SYMATTR InstName U3
SYMBOL res -48 272 M90
WINDOW 0 0 56 VBottom 2
WINDOW 3 32 56 VTop 2
SYMATTR InstName R3
SYMATTR Value 5k
SYMBOL res -384 544 M90
WINDOW 0 0 56 VBottom 2
WINDOW 3 32 56 VTop 2
SYMATTR InstName R4
SYMATTR Value 1k
SYMBOL res -208 400 M90
WINDOW 0 0 56 VBottom 2
WINDOW 3 32 56 VTop 2
SYMATTR InstName R5
SYMATTR Value 5k
SYMBOL cap -208 128 M90
WINDOW 0 0 32 VBottom 2
WINDOW 3 32 32 VTop 2
SYMATTR InstName C2
SYMATTR Value 23n
SYMBOL AutoGenerated\\LF347 320 496 R0
SYMATTR InstName U4
SYMBOL res 208 496 R90
WINDOW 0 0 56 VBottom 2
WINDOW 3 32 56 VTop 2
SYMATTR InstName R6
SYMATTR Value 35k
SYMBOL res 384 352 R90
WINDOW 0 0 56 VBottom 2
WINDOW 3 32 56 VTop 2
SYMATTR InstName R7
SYMATTR Value 10
SYMBOL res 592 336 R0
SYMATTR InstName R8
SYMATTR Value 100
SYMBOL res 928 288 R0
SYMATTR InstName R9
SYMATTR Value 100
SYMBOL res 1440 544 R90
WINDOW 0 0 56 VBottom 2
WINDOW 3 32 56 VTop 2
SYMATTR InstName R10
SYMATTR Value 1k
SYMBOL res 1328 608 R90
WINDOW 0 0 56 VBottom 2
WINDOW 3 32 56 VTop 2
SYMATTR InstName R11
SYMATTR Value 1k
SYMBOL voltage 1264 768 R270
WINDOW 0 32 56 VTop 2
WINDOW 3 -32 56 VBottom 2
WINDOW 123 0 0 Left 0
WINDOW 39 0 0 Left 0
SYMATTR InstName V4
SYMATTR Value SINE(0 1m 11k)
SYMBOL cap 1152 672 R0
SYMATTR InstName C3
SYMATTR Value 10µ
SYMBOL res 1152 784 R0
SYMATTR InstName R12
SYMATTR Value 10k
SYMBOL res -400 -128 R90
WINDOW 0 0 56 VBottom 2
WINDOW 3 32 56 VTop 2
SYMATTR InstName R13
SYMATTR Value 100k
SYMBOL res -272 -128 R90
WINDOW 0 0 56 VBottom 2
WINDOW 3 32 56 VTop 2
SYMATTR InstName R14
SYMATTR Value 50k
SYMBOL res -144 -128 R90
WINDOW 0 0 56 VBottom 2
WINDOW 3 32 56 VTop 2
SYMATTR InstName R15
SYMATTR Value 50k
SYMBOL cap -400 -64 R0
SYMATTR InstName C4
SYMATTR Value 1
SYMBOL cap -272 -64 R0
SYMATTR InstName C5
SYMATTR Value 1
SYMBOL AutoGenerated\\LF347 1136 -48 R0
SYMATTR InstName U5
SYMBOL res 1200 -192 R90
WINDOW 0 0 56 VBottom 2
WINDOW 3 32 56 VTop 2
SYMATTR InstName R16
SYMATTR Value 1k
TEXT -818 936 Left 2 !.tran 50ms
