Version 4
SHEET 1 880 680
WIRE -1376 -448 -1392 -448
WIRE -1264 -448 -1264 -528
WIRE -1264 -448 -1296 -448
WIRE -1248 -448 -1264 -448
WIRE -1136 -448 -1136 -528
WIRE -1136 -448 -1168 -448
WIRE -1120 -448 -1136 -448
WIRE -864 -432 -864 -464
WIRE -704 -432 -704 -464
WIRE -1264 -400 -1264 -448
WIRE -1136 -400 -1136 -448
WIRE -1392 -352 -1392 -448
WIRE -1264 -304 -1264 -336
WIRE -1136 -304 -1136 -336
WIRE -1392 -288 -1392 -352
WIRE -1088 -192 -1168 -192
WIRE -944 -192 -1024 -192
WIRE -1072 -96 -1120 -96
WIRE -976 -80 -976 -96
WIRE -976 -80 -1008 -80
WIRE -1072 -64 -1120 -64
WIRE -944 -48 -944 -192
WIRE -944 -48 -1008 -48
WIRE -912 -48 -944 -48
WIRE -800 -48 -832 -48
WIRE -1168 -32 -1168 -192
WIRE -1168 -32 -1280 -32
WIRE -1072 -32 -1168 -32
WIRE 64 -32 64 -80
WIRE -272 16 -272 -32
WIRE -592 32 -656 32
WIRE -432 32 -512 32
WIRE -1072 80 -1136 80
WIRE -944 80 -992 80
WIRE 448 80 416 80
WIRE 576 80 512 80
WIRE 64 96 64 48
WIRE 80 96 64 96
WIRE 352 96 240 96
WIRE -480 128 -528 128
WIRE -16 128 -32 128
WIRE 80 128 64 128
WIRE -624 144 -624 128
WIRE -592 144 -624 144
WIRE -480 160 -528 160
WIRE -32 160 -32 128
WIRE 80 160 -32 160
WIRE 416 160 416 80
WIRE 416 160 240 160
WIRE 480 160 416 160
WIRE 576 160 576 80
WIRE 576 160 560 160
WIRE 608 160 576 160
WIRE -944 176 -944 80
WIRE -944 176 -1008 176
WIRE -800 176 -800 -48
WIRE -800 176 -944 176
WIRE -768 176 -800 176
WIRE -656 176 -656 32
WIRE -656 176 -688 176
WIRE -592 176 -656 176
WIRE -1104 192 -1104 160
WIRE -1072 192 -1104 192
WIRE -432 192 -432 32
WIRE -432 192 -528 192
WIRE -352 192 -432 192
WIRE -272 192 -272 96
WIRE -272 192 -288 192
WIRE 80 192 -272 192
WIRE -976 208 -1008 208
WIRE -1280 224 -1280 -32
WIRE -1248 224 -1280 224
WIRE -1136 224 -1136 80
WIRE -1136 224 -1168 224
WIRE -1072 224 -1136 224
WIRE -432 224 -432 192
WIRE -16 224 -32 224
WIRE 80 224 64 224
WIRE 272 224 240 224
WIRE 384 224 352 224
WIRE -976 240 -1008 240
WIRE -224 256 -240 256
WIRE -208 256 -224 256
WIRE -64 256 -128 256
WIRE 80 256 -64 256
WIRE 288 288 240 288
WIRE 352 288 288 288
WIRE 512 288 432 288
WIRE -432 336 -432 304
WIRE 288 336 288 288
WIRE -224 352 -224 256
WIRE -176 352 -224 352
WIRE -64 352 -64 256
WIRE -64 352 -112 352
WIRE 288 432 288 400
WIRE 400 432 288 432
WIRE 560 432 480 432
WIRE 288 464 288 432
WIRE 288 576 288 544
FLAG 608 160 Vdd
FLAG -240 256 Vdd
FLAG -32 224 Vdd
FLAG -432 336 0
FLAG -1392 -208 0
FLAG -1392 -352 Vdd
FLAG -704 -352 0
FLAG -864 -352 0
FLAG -704 -464 V+
FLAG -864 -464 V-
FLAG -1120 -96 V+
FLAG -1120 -64 V-
FLAG -976 240 V+
FLAG -976 208 V-
FLAG -1104 160 0
FLAG -976 -96 0
FLAG -480 128 V+
FLAG -480 160 V-
FLAG -624 128 0
FLAG -272 -32 Vbias1
FLAG 64 -80 Vbias1
FLAG 352 96 0
FLAG 384 224 Vbias2
FLAG 512 288 Vbias2
FLAG 560 432 0
FLAG 288 576 0
FLAG -1040 -448 0
FLAG -1264 -304 0
FLAG -1136 -304 0
FLAG -1264 -528 Vbias2
FLAG -1136 -528 Vbias1
FLAG -64 256 Vo+
FLAG 416 160 Vo-
SYMBOL AutoGenerated\\MC1496 160 192 R0
SYMATTR InstName U1
SYMBOL res 80 112 R90
WINDOW 0 0 56 VBottom 2
WINDOW 3 32 56 VTop 2
SYMATTR InstName RE
SYMATTR Value 100
SYMBOL res 576 144 R90
WINDOW 0 0 56 VBottom 2
WINDOW 3 32 56 VTop 2
SYMATTR InstName RL1
SYMATTR Value 1k
SYMBOL res -112 240 R90
WINDOW 0 0 56 VBottom 2
WINDOW 3 32 56 VTop 2
SYMATTR InstName RL2
SYMATTR Value 1k
SYMBOL res 80 208 R90
WINDOW 0 0 56 VBottom 2
WINDOW 3 32 56 VTop 2
SYMATTR InstName R1
SYMATTR Value 100k
SYMBOL res -448 208 R0
SYMATTR InstName R2
SYMATTR Value 10k
SYMBOL cap -288 176 R90
WINDOW 0 0 32 VBottom 2
WINDOW 3 32 32 VTop 2
SYMATTR InstName C1
SYMATTR Value 10µ
SYMBOL voltage -1392 -304 R0
WINDOW 123 0 0 Left 0
WINDOW 39 0 0 Left 0
SYMATTR InstName V2
SYMATTR Value 12
SYMBOL AutoGenerated\\LF347 -1040 -64 M0
SYMATTR InstName U2
SYMBOL voltage -704 -448 M0
SYMATTR InstName V3
SYMATTR Value 5
SYMBOL voltage -864 -336 M180
WINDOW 0 24 96 Left 2
WINDOW 3 24 16 Left 2
SYMATTR InstName V4
SYMATTR Value 5
SYMBOL AutoGenerated\\LF347 -1040 208 M180
SYMATTR InstName U3
SYMBOL res -928 -64 M90
WINDOW 0 0 56 VBottom 2
WINDOW 3 32 56 VTop 2
SYMATTR InstName R3
SYMATTR Value 5k
SYMBOL res -1264 208 M90
WINDOW 0 0 56 VBottom 2
WINDOW 3 32 56 VTop 2
SYMATTR InstName R4
SYMATTR Value 1k
SYMBOL res -1088 64 M90
WINDOW 0 0 56 VBottom 2
WINDOW 3 32 56 VTop 2
SYMATTR InstName R5
SYMATTR Value 5k
SYMBOL cap -1088 -208 M90
WINDOW 0 0 32 VBottom 2
WINDOW 3 32 32 VTop 2
SYMATTR InstName C2
SYMATTR Value 23n
SYMBOL AutoGenerated\\LF347 -560 160 R0
SYMATTR InstName U4
SYMBOL res -672 160 R90
WINDOW 0 0 56 VBottom 2
WINDOW 3 32 56 VTop 2
SYMATTR InstName R6
SYMATTR Value 35k
SYMBOL res -496 16 R90
WINDOW 0 0 56 VBottom 2
WINDOW 3 32 56 VTop 2
SYMATTR InstName R7
SYMATTR Value 10
SYMBOL res -288 0 R0
SYMATTR InstName R8
SYMATTR Value 100
SYMBOL res 48 -48 R0
SYMATTR InstName R9
SYMATTR Value 100
SYMBOL res 368 208 R90
WINDOW 0 0 56 VBottom 2
WINDOW 3 32 56 VTop 2
SYMATTR InstName R10
SYMATTR Value 1k
SYMBOL res 448 272 R90
WINDOW 0 0 56 VBottom 2
WINDOW 3 32 56 VTop 2
SYMATTR InstName R11
SYMATTR Value 1k
SYMBOL voltage 384 432 R270
WINDOW 0 32 56 VTop 2
WINDOW 3 -32 56 VBottom 2
WINDOW 123 0 0 Left 0
WINDOW 39 0 0 Left 0
SYMATTR InstName V1
SYMATTR Value SINE(0 1m 11k)
SYMBOL cap 272 336 R0
SYMATTR InstName C3
SYMATTR Value 1
SYMBOL res 272 448 R0
SYMATTR InstName R12
SYMATTR Value 10k
SYMBOL res -1280 -464 R90
WINDOW 0 0 56 VBottom 2
WINDOW 3 32 56 VTop 2
SYMATTR InstName R13
SYMATTR Value 100k
SYMBOL res -1152 -464 R90
WINDOW 0 0 56 VBottom 2
WINDOW 3 32 56 VTop 2
SYMATTR InstName R14
SYMATTR Value 50k
SYMBOL res -1024 -464 R90
WINDOW 0 0 56 VBottom 2
WINDOW 3 32 56 VTop 2
SYMATTR InstName R15
SYMATTR Value 50k
SYMBOL cap -1280 -400 R0
SYMATTR InstName C4
SYMATTR Value 1
SYMBOL cap -1152 -400 R0
SYMATTR InstName C5
SYMATTR Value 1
SYMBOL cap -112 336 R90
WINDOW 0 0 32 VBottom 2
WINDOW 3 32 32 VTop 2
SYMATTR InstName C6
SYMATTR Value 300n
SYMBOL cap 512 64 R90
WINDOW 0 0 32 VBottom 2
WINDOW 3 32 32 VTop 2
SYMATTR InstName C7
SYMATTR Value 300n
TEXT -1008 424 Left 2 !.tran 50ms
