Version 4
SHEET 1 880 680
WIRE -416 -240 -512 -240
WIRE -176 -240 -336 -240
WIRE -112 -240 -176 -240
WIRE 16 -240 -32 -240
WIRE 96 -240 16 -240
WIRE 144 -240 96 -240
WIRE 304 -240 144 -240
WIRE -512 -192 -512 -240
WIRE -352 -160 -352 -192
WIRE -352 -128 -352 -160
WIRE -176 -128 -176 -240
WIRE 16 -128 16 -240
WIRE 144 -128 144 -240
WIRE 304 -128 304 -240
WIRE 512 -128 512 -144
WIRE -256 -112 -288 -112
WIRE -224 -112 -256 -112
WIRE 592 -112 592 -144
WIRE -224 -80 -288 -80
WIRE 512 -80 512 -128
WIRE 592 -80 592 -112
WIRE -224 -64 -224 -80
WIRE -512 0 -512 -112
WIRE -288 0 -512 0
WIRE -176 0 -176 -48
WIRE -176 0 -288 0
WIRE 16 0 16 -64
WIRE 16 0 -176 0
WIRE 144 0 144 -48
WIRE 144 0 16 0
WIRE 304 0 304 -48
WIRE 304 0 144 0
WIRE -176 32 -176 0
WIRE 128 64 80 64
WIRE 224 64 192 64
WIRE -288 160 -288 128
WIRE 160 160 160 144
WIRE 224 176 224 64
WIRE 224 176 192 176
WIRE 272 176 224 176
WIRE 512 176 352 176
WIRE 80 192 80 64
WIRE 80 192 -272 192
WIRE 128 192 80 192
WIRE 272 208 192 208
WIRE 512 208 512 176
WIRE -352 224 -448 224
WIRE -224 224 -272 224
WIRE 608 224 560 224
WIRE -224 256 -224 224
WIRE -112 256 -224 256
WIRE 160 256 160 224
WIRE 272 256 272 208
WIRE 160 272 160 256
WIRE -304 288 -304 256
WIRE -304 304 -304 288
FLAG -400 -192 0
FLAG -176 32 0
FLAG -352 -160 vc
FLAG -256 -112 vc
FLAG 96 -240 vo
FLAG 592 0 0
FLAG 512 0 0
FLAG 592 -112 V+
FLAG 512 -128 V-
FLAG 160 256 V-
FLAG 160 144 V+
FLAG 272 336 0
FLAG -288 128 V-
FLAG -304 288 V+
FLAG -32 256 0
FLAG 560 272 0
FLAG 608 224 vo
FLAG 512 288 0
FLAG -448 224 vc
FLAG -304 160 0
FLAG -320 160 0
SYMBOL sw -176 -144 R0
SYMATTR InstName S1
SYMATTR Value MYSW
SYMBOL sw -432 -240 R270
SYMATTR InstName S2
SYMATTR Value MYSW
SYMBOL voltage -512 -208 R0
WINDOW 123 0 0 Left 2
WINDOW 39 0 0 Left 2
SYMATTR InstName V1
SYMATTR Value 5
SYMBOL ind -128 -224 R270
WINDOW 0 32 56 VTop 2
WINDOW 3 5 56 VBottom 2
SYMATTR InstName L1
SYMATTR Value 131.8µ
SYMBOL cap 0 -128 R0
SYMATTR InstName C1
SYMATTR Value 118.6n
SYMBOL res 128 -144 R0
SYMATTR InstName R1
SYMATTR Value 100
SYMBOL voltage -288 -96 R0
WINDOW 123 0 0 Left 2
WINDOW 39 0 0 Left 2
SYMATTR InstName V2
SYMATTR Value 5
SYMBOL current 304 -128 R0
WINDOW 123 0 0 Left 2
WINDOW 39 0 0 Left 2
SYMATTR InstName I1
SYMATTR Value 100m
SYMBOL Opamps\\LT1013 160 128 M0
SYMATTR InstName U1
SYMBOL Comparators\\LT1712 -304 208 R180
SYMATTR InstName U2
SYMBOL voltage 592 -96 R0
WINDOW 123 0 0 Left 2
WINDOW 39 0 0 Left 2
SYMATTR InstName V+
SYMATTR Value 5
SYMBOL voltage 512 16 R180
WINDOW 0 24 96 Left 2
WINDOW 3 24 16 Left 2
SYMATTR InstName V-
SYMATTR Value 5
SYMBOL cap 128 80 R270
WINDOW 0 32 32 VTop 2
WINDOW 3 0 32 VBottom 2
SYMATTR InstName C2
SYMATTR Value 100n
SYMBOL res 256 192 R270
WINDOW 0 32 56 VTop 2
WINDOW 3 0 56 VBottom 2
SYMATTR InstName R2
SYMATTR Value 100
SYMBOL voltage 272 240 R0
WINDOW 123 0 0 Left 2
WINDOW 39 0 0 Left 2
SYMATTR InstName Vref
SYMATTR Value 1.2
SYMBOL voltage -128 256 M90
WINDOW 0 -32 56 VBottom 2
WINDOW 3 32 56 VTop 2
WINDOW 123 0 0 Left 2
WINDOW 39 0 0 Left 2
SYMATTR InstName V4
SYMATTR Value PULSE(0 5 0 0.5u 0.5u 0 1u)
SYMBOL e 512 192 M0
SYMATTR InstName E1
SYMATTR Value 0.48
TEXT -384 376 Left 2 !.model MYSW SW(Ron=0.01 Roff=1Meg Vt=.5 Vh=0)
TEXT -184 432 Left 2 !.tran 1m
