Version 4
SHEET 1 880 680
WIRE 688 32 416 32
WIRE 416 112 416 32
WIRE 688 144 688 32
WIRE 368 192 160 192
WIRE 160 240 160 192
WIRE 160 448 160 320
WIRE 416 448 416 208
WIRE 416 448 160 448
WIRE 688 448 688 208
WIRE 688 448 416 448
WIRE 416 480 416 448
FLAG 416 480 0
SYMBOL voltage 160 224 R0
SYMATTR InstName Vdd
SYMATTR Value 1.8
SYMBOL cap 672 144 R0
SYMATTR InstName C1
SYMATTR Value 1p
SYMATTR SpiceLine IC=1.8
SYMBOL nmos 368 112 R0
SYMATTR InstName M2
SYMATTR Value nch_tt
SYMATTR Value2 l=180n w=240n
TEXT -136 176 Left 2 !.include TSMC180.lib
TEXT -82 216 Left 2 !.tran 30ns
