Version 4
SHEET 1 880 760
WIRE 320 272 224 272
WIRE 416 272 320 272
WIRE 224 384 224 272
WIRE 416 400 416 272
WIRE 176 464 16 464
WIRE 16 544 16 464
WIRE 16 704 16 624
WIRE 224 704 224 480
WIRE 224 704 16 704
WIRE 416 704 416 464
WIRE 416 704 224 704
WIRE 224 720 224 704
FLAG 224 720 0
FLAG 320 272 dr
SYMBOL nmos 176 384 R0
SYMATTR InstName M1
SYMATTR Value nch_tt
SYMATTR Value2 l=180n w=240n
SYMBOL voltage 16 528 R0
SYMATTR InstName Vgs1
SYMATTR Value {Vdd}
SYMBOL cap 400 400 R0
SYMATTR InstName C1
SYMATTR Value 1p
TEXT -272 312 Left 2 !.include TSMC180.lib
TEXT -288 352 Left 2 !.step param Vdd 0.5 1.8 0.1
TEXT -240 392 Left 2 !.ic V(dr) = {Vdd}
TEXT -290 744 Left 2 !.tran 1
