Version 4
SHEET 1 1228 680
WIRE 608 -16 320 -16
WIRE 832 -16 608 -16
WIRE 1072 -16 848 -16
WIRE -96 96 -96 48
WIRE 320 96 320 -16
WIRE 400 96 320 96
WIRE 544 96 528 96
WIRE 608 96 608 -16
WIRE 640 96 608 96
WIRE 784 96 768 96
WIRE 848 96 848 -16
WIRE 864 96 848 96
WIRE 1008 96 992 96
WIRE 400 128 320 128
WIRE 608 128 608 96
WIRE 640 128 608 128
WIRE 832 128 832 -16
WIRE 864 128 832 128
WIRE 1072 128 1072 -16
WIRE 1136 128 1072 128
WIRE 1136 160 1136 128
WIRE 1136 272 1136 224
WIRE 1072 336 1072 128
WIRE 1072 336 656 336
WIRE 64 352 -352 352
WIRE 128 352 64 352
WIRE 192 352 128 352
WIRE 320 352 320 128
WIRE 320 352 192 352
WIRE 656 416 656 336
WIRE 688 416 656 416
WIRE -352 432 -352 352
WIRE -320 432 -352 432
WIRE 192 432 192 352
WIRE 688 448 672 448
WIRE 864 448 816 448
WIRE -320 464 -480 464
WIRE -160 464 -192 464
WIRE 320 464 320 352
WIRE 672 464 672 448
WIRE 672 464 320 464
WIRE -480 496 -480 464
WIRE -80 512 -112 512
WIRE 64 512 64 352
WIRE 64 512 48 512
WIRE 128 544 128 352
WIRE 128 544 48 544
WIRE 192 560 192 496
FLAG -192 432 0
FLAG -480 576 0
FLAG 192 560 0
FLAG 816 416 0
FLAG 528 128 0
FLAG 768 128 0
FLAG 992 128 0
FLAG -96 176 0
FLAG -96 48 Vdd
FLAG 784 96 Vdd
FLAG 544 96 Vdd
FLAG 1008 96 Vdd
FLAG 864 448 Vdd
FLAG -160 464 Vdd
FLAG 1136 272 0
FLAG -80 544 0
FLAG -112 512 Vdd
FLAG 192 352 V1
FLAG 1136 128 V2
SYMBOL AutoGenerated\\4069UB -256 448 M180
SYMATTR InstName U1
SYMBOL voltage -480 480 R0
WINDOW 123 44 132 Left 2
WINDOW 39 0 0 Left 0
WINDOW 3 44 104 Left 2
SYMATTR Value2 AC 1
SYMATTR InstName Vin1
SYMATTR Value SINE(2.5626 1m 10k)
SYMBOL cap 176 432 R0
SYMATTR InstName C1
SYMATTR Value 59.52n
SYMBOL AutoGenerated\\4069UB 752 432 M180
SYMATTR InstName U2
SYMBOL AutoGenerated\\4069UB 464 112 R0
SYMATTR InstName U3
SYMBOL AutoGenerated\\4069UB 704 112 R0
SYMATTR InstName U4
SYMBOL AutoGenerated\\4069UB 928 112 R0
SYMATTR InstName U5
SYMBOL voltage -96 80 R0
WINDOW 123 0 0 Left 0
WINDOW 39 0 0 Left 0
SYMATTR InstName V1
SYMATTR Value 6
SYMBOL cap 1120 160 R0
SYMATTR InstName C2
SYMATTR Value 14.88n
SYMBOL AutoGenerated\\4069UB -16 528 M0
SYMATTR InstName U6
TEXT -514 632 Left 2 !.ac dec 1000 1k 100k
