Version 4
SHEET 1 880 680
WIRE 80 128 64 128
WIRE 160 128 160 80
WIRE 192 128 160 128
WIRE 192 160 176 160
WIRE 400 160 320 160
WIRE 496 160 480 160
WIRE -48 176 -112 176
WIRE 64 176 64 128
WIRE 64 176 16 176
WIRE 176 176 176 160
WIRE 176 176 64 176
WIRE -112 192 -112 176
FLAG 496 160 0
FLAG 320 128 0
FLAG -112 272 0
FLAG 160 16 0
SYMBOL AutoGenerated\\4069UB 256 144 M180
SYMATTR InstName U1
SYMBOL voltage 384 160 M90
WINDOW 0 -32 56 VBottom 2
WINDOW 3 32 56 VTop 2
WINDOW 123 0 0 Left 0
WINDOW 39 0 0 Left 0
SYMATTR InstName Vdd
SYMATTR Value 6V
SYMBOL voltage -112 176 R0
WINDOW 123 0 0 Left 0
WINDOW 39 0 0 Left 0
SYMATTR InstName V1
SYMATTR Value SINE(0 1m 1k)
SYMBOL cap 16 160 R90
WINDOW 0 0 32 VBottom 2
WINDOW 3 32 32 VTop 2
SYMATTR InstName C1
SYMATTR Value 1
SYMBOL res 176 112 R90
WINDOW 0 0 56 VBottom 2
WINDOW 3 32 56 VTop 2
SYMATTR InstName R1
SYMATTR Value 53.475k
SYMBOL cap 144 16 R0
SYMATTR InstName C2
SYMATTR Value 1
TEXT -144 296 Left 2 !.tran 10m
