Version 4
SHEET 1 1372 680
WIRE 736 -544 448 -544
WIRE 960 -544 736 -544
WIRE 1200 -544 976 -544
WIRE 32 -432 32 -480
WIRE 448 -432 448 -544
WIRE 528 -432 448 -432
WIRE 672 -432 656 -432
WIRE 736 -432 736 -544
WIRE 768 -432 736 -432
WIRE 912 -432 896 -432
WIRE 976 -432 976 -544
WIRE 992 -432 976 -432
WIRE 1136 -432 1120 -432
WIRE 528 -400 448 -400
WIRE 736 -400 736 -432
WIRE 768 -400 736 -400
WIRE 960 -400 960 -544
WIRE 992 -400 960 -400
WIRE 1200 -400 1200 -544
WIRE 1264 -400 1200 -400
WIRE 1264 -368 1264 -400
WIRE 1264 -256 1264 -304
WIRE 1200 -192 1200 -400
WIRE 1200 -192 784 -192
WIRE 192 -176 -224 -176
WIRE 256 -176 192 -176
WIRE 320 -176 256 -176
WIRE 448 -176 448 -400
WIRE 448 -176 320 -176
WIRE 784 -112 784 -192
WIRE 816 -112 784 -112
WIRE -224 -96 -224 -176
WIRE -192 -96 -224 -96
WIRE 320 -96 320 -176
WIRE 816 -80 800 -80
WIRE 992 -80 944 -80
WIRE -192 -64 -352 -64
WIRE -32 -64 -64 -64
WIRE 448 -64 448 -176
WIRE 800 -64 800 -80
WIRE 800 -64 448 -64
WIRE -352 -32 -352 -64
WIRE 48 -16 16 -16
WIRE 192 -16 192 -176
WIRE 192 -16 176 -16
WIRE 256 16 256 -176
WIRE 256 16 176 16
WIRE 320 32 320 -32
FLAG -64 -96 0
FLAG -352 48 0
FLAG 320 32 0
FLAG 944 -112 0
FLAG 656 -400 0
FLAG 896 -400 0
FLAG 1120 -400 0
FLAG 32 -352 0
FLAG 32 -480 Vdd
FLAG 912 -432 Vdd
FLAG 672 -432 Vdd
FLAG 1136 -432 Vdd
FLAG 992 -80 Vdd
FLAG -32 -64 Vdd
FLAG 1264 -256 0
FLAG 48 16 0
FLAG 16 -16 Vdd
FLAG 320 -176 V1
FLAG 1264 -400 V2
SYMBOL AutoGenerated\\4069UB -128 -80 M180
SYMATTR InstName U1
SYMBOL voltage -352 -48 R0
WINDOW 123 44 132 Left 2
WINDOW 39 0 0 Left 0
WINDOW 3 44 104 Left 2
SYMATTR InstName Vin
SYMATTR Value SINE(2.5626 1m 10k)
SYMBOL cap 304 -96 R0
SYMATTR InstName C3
SYMATTR Value 59.52n
SYMBOL AutoGenerated\\4069UB 880 -96 M180
SYMATTR InstName U2
SYMBOL AutoGenerated\\4069UB 592 -416 R0
SYMATTR InstName U3
SYMBOL AutoGenerated\\4069UB 832 -416 R0
SYMATTR InstName U4
SYMBOL AutoGenerated\\4069UB 1056 -416 R0
SYMATTR InstName U5
SYMBOL voltage 32 -448 R0
WINDOW 123 0 0 Left 0
WINDOW 39 0 0 Left 0
SYMATTR InstName V2
SYMATTR Value 6
SYMBOL cap 1248 -368 R0
SYMATTR InstName C8
SYMATTR Value 14.88n
SYMBOL AutoGenerated\\4069UB 112 0 M0
SYMATTR InstName U6
TEXT -386 76 Left 2 !.tran 1m
