Version 4
SHEET 1 880 680
WIRE 0 112 -64 112
WIRE 64 112 0 112
WIRE 0 144 0 112
WIRE 64 144 0 144
WIRE 272 144 192 144
WIRE 368 144 352 144
WIRE -176 192 -240 192
WIRE -96 192 -112 192
WIRE 0 192 0 144
WIRE 0 192 -16 192
WIRE -240 208 -240 192
FLAG 368 144 0
FLAG 192 112 0
FLAG -240 288 0
FLAG -64 112 Vout
SYMBOL AutoGenerated\\4069UB 128 128 M180
SYMATTR InstName U1
SYMBOL voltage 256 144 M90
WINDOW 0 -32 56 VBottom 2
WINDOW 3 32 56 VTop 2
WINDOW 123 0 0 Left 0
WINDOW 39 0 0 Left 0
SYMATTR InstName Vdd1
SYMATTR Value 9V
SYMBOL voltage -240 192 R0
WINDOW 123 0 0 Left 0
WINDOW 39 0 0 Left 0
SYMATTR InstName V1
SYMATTR Value SINE(0 1m 1k)
SYMBOL res -112 176 M90
WINDOW 0 0 56 VBottom 2
WINDOW 3 32 56 VTop 2
SYMATTR InstName R1
SYMATTR Value 1k
SYMBOL cap -112 176 R90
WINDOW 0 0 32 VBottom 2
WINDOW 3 32 32 VTop 2
SYMATTR InstName C1
SYMATTR Value 1
TEXT -274 312 Left 2 !.tran 10m
