Version 4
SHEET 1 880 680
WIRE 160 176 96 176
WIRE 368 176 288 176
WIRE 160 208 144 208
FLAG 288 208 0
FLAG 448 176 0
FLAG 16 176 0
FLAG 144 208 out
SYMBOL AutoGenerated\\4069UB 224 192 R0
SYMATTR InstName U1
SYMBOL voltage 352 176 R270
WINDOW 0 32 56 VTop 2
WINDOW 3 -32 56 VBottom 2
SYMATTR InstName V1
SYMATTR Value 6V
SYMBOL voltage 112 176 R90
WINDOW 0 -32 56 VBottom 2
WINDOW 3 32 56 VTop 2
SYMATTR InstName V2
SYMATTR Value 0
TEXT -48 296 Left 2 !.dc V2 0 6V 0.1V
