Version 4
SHEET 1 880 680
WIRE 304 -144 304 -192
WIRE 400 -144 400 -192
WIRE -304 64 -368 64
WIRE -160 64 -176 64
WIRE -64 64 -80 64
WIRE 112 64 64 64
WIRE 304 80 272 80
WIRE -304 96 -368 96
WIRE -160 96 -176 96
WIRE 112 96 112 64
WIRE 144 96 112 96
WIRE 304 112 272 112
WIRE -368 128 -368 96
WIRE 64 128 -368 128
WIRE 144 128 64 128
WIRE 400 144 272 144
WIRE 464 144 400 144
WIRE 64 272 64 128
WIRE 192 272 64 272
WIRE 400 272 400 144
WIRE 400 272 272 272
FLAG -448 64 0
FLAG -64 64 0
FLAG -16 64 0
FLAG 464 144 out
FLAG 400 -64 0
FLAG 304 -64 0
FLAG 400 -192 V+
FLAG 304 -192 V-
FLAG 304 80 V+
FLAG 304 112 V-
FLAG -160 96 0
SYMBOL AutoGenerated\\LMX24_LM2902 208 112 R0
SYMATTR InstName U1
SYMBOL voltage -352 64 R90
WINDOW 0 -32 56 VBottom 2
WINDOW 3 32 56 VTop 2
SYMATTR InstName V1
SYMATTR Value 0
SYMBOL voltage -176 64 M90
WINDOW 0 -32 56 VBottom 2
WINDOW 3 32 56 VTop 2
WINDOW 123 0 0 Left 0
WINDOW 39 0 0 Left 0
SYMATTR InstName Vdd
SYMATTR Value 6V
SYMBOL voltage 80 64 R90
WINDOW 0 -32 56 VBottom 2
WINDOW 3 32 56 VTop 2
SYMATTR InstName Vdd/2
SYMATTR Value 3V
SYMBOL res 288 256 R90
WINDOW 0 0 56 VBottom 2
WINDOW 3 32 56 VTop 2
SYMATTR InstName Rf
SYMATTR Value 1k
SYMBOL voltage 400 -160 R0
SYMATTR InstName V2
SYMATTR Value 15V
SYMBOL voltage 304 -48 R180
WINDOW 0 24 96 Left 2
WINDOW 3 24 16 Left 2
SYMATTR InstName V3
SYMATTR Value 15V
SYMBOL AutoGenerated\\4069UB -240 80 R0
SYMATTR InstName U2
TEXT -560 136 Left 2 !.dc V1 0V 6V 0.1
