Version 4
SHEET 1 880 680
SYMBOL npn 64 32 R0
SYMATTR InstName Q1
SYMATTR Value 2N3904
SYMBOL npn 368 32 M0
SYMATTR InstName Q2
SYMATTR Value 2N3904
SYMBOL npn 400 32 R0
SYMATTR InstName Q3
SYMATTR Value 2N3904
SYMBOL npn 704 32 M0
SYMATTR InstName Q4
SYMATTR Value 2N3904
