Version 4
SHEET 1 1188 680
WIRE -1136 -400 -1136 -432
WIRE -976 -400 -976 -432
WIRE -768 -288 -848 -288
WIRE -624 -288 -704 -288
WIRE -32 -240 -32 -304
WIRE -752 -192 -800 -192
WIRE -656 -176 -656 -192
WIRE -656 -176 -688 -176
WIRE 656 -176 656 -256
WIRE 656 -176 144 -176
WIRE 944 -176 656 -176
WIRE -752 -160 -800 -160
WIRE 656 -160 656 -176
WIRE -624 -144 -624 -288
WIRE -624 -144 -688 -144
WIRE -592 -144 -624 -144
WIRE -480 -144 -512 -144
WIRE 144 -144 144 -176
WIRE 944 -144 944 -176
WIRE -848 -128 -848 -288
WIRE -848 -128 -960 -128
WIRE -752 -128 -848 -128
WIRE -272 -64 -336 -64
WIRE -112 -64 -192 -64
WIRE 656 -48 656 -80
WIRE 656 -48 320 -48
WIRE -752 -16 -816 -16
WIRE -624 -16 -672 -16
WIRE 144 -16 144 -64
WIRE 480 -16 144 -16
WIRE -160 32 -208 32
WIRE -304 48 -304 32
WIRE -272 48 -304 48
WIRE 144 48 144 -16
WIRE 320 48 320 -48
WIRE 480 48 480 -16
WIRE 656 48 656 -48
WIRE -160 64 -208 64
WIRE -624 80 -624 -16
WIRE -624 80 -688 80
WIRE -480 80 -480 -144
WIRE -480 80 -624 80
WIRE -448 80 -480 80
WIRE -336 80 -336 -64
WIRE -336 80 -368 80
WIRE -272 80 -336 80
WIRE -784 96 -784 64
WIRE -752 96 -784 96
WIRE -112 96 -112 -64
WIRE -112 96 -208 96
WIRE -32 96 -112 96
WIRE 80 96 32 96
WIRE 400 96 384 96
WIRE 416 96 400 96
WIRE 784 96 720 96
WIRE 944 96 944 -64
WIRE 944 96 864 96
WIRE 1024 96 944 96
WIRE 1168 96 1088 96
WIRE -656 112 -688 112
WIRE -960 128 -960 -128
WIRE -928 128 -960 128
WIRE -816 128 -816 -16
WIRE -816 128 -848 128
WIRE -752 128 -816 128
WIRE -112 128 -112 96
WIRE -656 144 -688 144
WIRE 240 144 144 144
WIRE 320 144 240 144
WIRE 576 144 480 144
WIRE 656 144 576 144
WIRE 80 160 80 96
WIRE 720 160 720 96
WIRE 720 160 80 160
WIRE 320 224 304 224
WIRE 400 224 400 96
WIRE 400 224 384 224
WIRE 624 224 400 224
WIRE 944 224 944 96
WIRE 944 224 704 224
WIRE -112 240 -112 208
WIRE 944 256 944 224
WIRE 736 288 160 288
WIRE 848 288 816 288
WIRE 240 304 240 144
WIRE 576 304 576 144
WIRE -48 352 -192 352
WIRE 32 352 -48 352
WIRE 160 352 160 288
WIRE 160 352 96 352
WIRE 176 352 160 352
WIRE 768 352 640 352
WIRE 848 368 848 288
WIRE 944 368 944 336
WIRE 944 368 848 368
WIRE 1040 368 944 368
WIRE 1168 368 1104 368
WIRE -48 384 -48 352
WIRE 416 400 240 400
WIRE 576 400 416 400
WIRE 416 432 416 400
WIRE 768 464 768 352
WIRE 800 464 768 464
WIRE 944 464 944 368
WIRE 944 464 880 464
WIRE 944 496 944 464
WIRE -48 512 -48 464
WIRE 416 544 416 512
WIRE 944 624 944 576
FLAG 416 544 0
FLAG -112 240 0
FLAG -48 512 0
FLAG 1168 368 0
FLAG 1168 96 0
FLAG 304 224 0
FLAG -272 352 0
FLAG -32 -160 0
FLAG -32 -304 Vdd
FLAG 656 -256 Vdd
FLAG -976 -320 0
FLAG -1136 -320 0
FLAG -976 -432 V+
FLAG -1136 -432 V-
FLAG -800 -192 V+
FLAG -800 -160 V-
FLAG -656 144 V+
FLAG -656 112 V-
FLAG -784 64 0
FLAG -656 -192 0
FLAG -160 32 V+
FLAG -160 64 V-
FLAG -304 32 0
FLAG 944 624 0
FLAG 144 -16 Vout+
FLAG 656 -48 Vout-
SYMBOL npn 80 48 R0
SYMATTR InstName Q1
SYMATTR Value 2N3904
SYMBOL npn 384 48 M0
SYMATTR InstName Q2
SYMATTR Value 2N3904
SYMBOL npn 416 48 R0
SYMATTR InstName Q3
SYMATTR Value 2N3904
SYMBOL npn 720 48 M0
SYMATTR InstName Q4
SYMATTR Value 2N3904
SYMBOL npn 176 304 R0
SYMATTR InstName Q5
SYMATTR Value 2N3904
SYMBOL npn 640 304 M0
SYMATTR InstName Q6
SYMATTR Value 2N3904
SYMBOL voltage -176 352 R90
WINDOW 0 -32 56 VBottom 2
WINDOW 3 32 56 VTop 2
WINDOW 123 0 0 Left 0
WINDOW 39 0 0 Left 0
SYMATTR InstName V1
SYMATTR Value SINE(0 1m 1k)
SYMBOL res 128 -160 R0
SYMATTR InstName R1
SYMATTR Value 2k
SYMBOL res 640 -176 R0
SYMATTR InstName R2
SYMATTR Value 2k
SYMBOL res 928 -160 R0
SYMATTR InstName R3
SYMATTR Value 40k
SYMBOL res 880 80 R90
WINDOW 0 0 56 VBottom 2
WINDOW 3 32 56 VTop 2
SYMATTR InstName R4
SYMATTR Value 2k
SYMBOL res 720 208 R90
WINDOW 0 0 56 VBottom 2
WINDOW 3 32 56 VTop 2
SYMATTR InstName R5
SYMATTR Value 2k
SYMBOL res 832 272 R90
WINDOW 0 0 56 VBottom 2
WINDOW 3 32 56 VTop 2
SYMATTR InstName R6
SYMATTR Value 2k
SYMBOL res 960 352 R180
WINDOW 0 36 76 Left 2
WINDOW 3 36 40 Left 2
SYMATTR InstName R7
SYMATTR Value 40k
SYMBOL res 960 592 R180
WINDOW 0 36 76 Left 2
WINDOW 3 36 40 Left 2
SYMATTR InstName R8
SYMATTR Value 30k
SYMBOL res 784 480 R270
WINDOW 0 32 56 VTop 2
WINDOW 3 0 56 VBottom 2
SYMATTR InstName R9
SYMATTR Value 2k
SYMBOL res 400 416 R0
SYMATTR InstName R10
SYMATTR Value 2k
SYMBOL res -64 368 R0
SYMATTR InstName R11
SYMATTR Value 1k
SYMBOL res -128 112 R0
SYMATTR InstName R12
SYMATTR Value 1k
SYMBOL cap 32 80 R90
WINDOW 0 0 32 VBottom 2
WINDOW 3 32 32 VTop 2
SYMATTR InstName C1
SYMATTR Value 10µ
SYMBOL cap 96 336 R90
WINDOW 0 0 32 VBottom 2
WINDOW 3 32 32 VTop 2
SYMATTR InstName C2
SYMATTR Value 10µ
SYMBOL cap 384 208 R90
WINDOW 0 0 32 VBottom 2
WINDOW 3 32 32 VTop 2
SYMATTR InstName C3
SYMATTR Value 1
SYMBOL cap 1088 80 R90
WINDOW 0 0 32 VBottom 2
WINDOW 3 32 32 VTop 2
SYMATTR InstName C4
SYMATTR Value 1
SYMBOL cap 1104 352 R90
WINDOW 0 0 32 VBottom 2
WINDOW 3 32 32 VTop 2
SYMATTR InstName C5
SYMATTR Value 1
SYMBOL voltage -32 -256 R0
WINDOW 123 0 0 Left 0
WINDOW 39 0 0 Left 0
SYMATTR InstName V2
SYMATTR Value 12
SYMBOL AutoGenerated\\LF347 -720 -160 M0
SYMATTR InstName U1
SYMBOL voltage -976 -416 M0
SYMATTR InstName V3
SYMATTR Value 5
SYMBOL voltage -1136 -304 M180
WINDOW 0 24 96 Left 2
WINDOW 3 24 16 Left 2
SYMATTR InstName V4
SYMATTR Value 5
SYMBOL AutoGenerated\\LF347 -720 112 M180
SYMATTR InstName U2
SYMBOL res -608 -160 M90
WINDOW 0 0 56 VBottom 2
WINDOW 3 32 56 VTop 2
SYMATTR InstName R16
SYMATTR Value 5k
SYMBOL res -944 112 M90
WINDOW 0 0 56 VBottom 2
WINDOW 3 32 56 VTop 2
SYMATTR InstName R17
SYMATTR Value 1k
SYMBOL res -768 -32 M90
WINDOW 0 0 56 VBottom 2
WINDOW 3 32 56 VTop 2
SYMATTR InstName R13
SYMATTR Value 5k
SYMBOL cap -768 -304 M90
WINDOW 0 0 32 VBottom 2
WINDOW 3 32 32 VTop 2
SYMATTR InstName C6
SYMATTR Value 23n
SYMBOL AutoGenerated\\LF347 -240 64 R0
SYMATTR InstName U3
SYMBOL res -352 64 R90
WINDOW 0 0 56 VBottom 2
WINDOW 3 32 56 VTop 2
SYMATTR InstName R14
SYMATTR Value 10k
SYMBOL res -176 -80 R90
WINDOW 0 0 56 VBottom 2
WINDOW 3 32 56 VTop 2
SYMATTR InstName R15
SYMATTR Value 35
TEXT -1170 630 Left 2 !.tran 10m
