Version 4
SHEET 1 1012 680
WIRE 224 -176 224 -192
WIRE 224 -64 224 -96
WIRE 176 -48 144 -48
WIRE 144 64 144 -48
WIRE 144 64 0 64
WIRE 224 64 224 32
WIRE 384 64 224 64
WIRE 224 96 224 64
WIRE 384 96 384 64
WIRE 0 176 0 64
WIRE 144 176 144 64
WIRE 176 176 144 176
WIRE 384 208 384 160
WIRE 224 224 224 192
WIRE 0 288 0 256
FLAG 224 224 0
FLAG 224 -192 0
FLAG 0 288 0
FLAG 224 64 Vout
FLAG 384 208 0
SYMBOL pmos 176 32 M180
SYMATTR InstName M1
SYMATTR Value pch_tt
SYMATTR Value2 w={5.27*width} l=180n
SYMBOL nmos 176 96 R0
SYMATTR InstName M2
SYMATTR Value nch_tt
SYMATTR Value2 w={width} l=180n
SYMBOL voltage 224 -80 R180
WINDOW 0 24 96 Left 2
WINDOW 3 24 16 Left 2
WINDOW 123 0 0 Left 0
WINDOW 39 0 0 Left 0
SYMATTR InstName Vdd
SYMATTR Value 1.8
SYMBOL voltage 0 160 R0
WINDOW 123 0 0 Left 0
WINDOW 39 0 0 Left 0
SYMATTR InstName Vin
SYMATTR Value PULSE(0 1.8 0 1f 1f 1u 2u)
SYMBOL cap 368 96 R0
SYMATTR InstName C1
SYMATTR Value 20p
TEXT -112 -88 Left 2 !.include TSMC180.lib
TEXT -168 264 Left 2 !.tran 50u
TEXT 600 -16 Left 2 !.include TSMC180.lib
TEXT 680 56 Left 2 !.param width {S*180*1e-9}
TEXT 672 -96 Left 2 !.step param S list 1 2 3 4 5 6
