Version 4
SHEET 1 896 680
WIRE 640 80 384 80
WIRE 384 144 384 80
WIRE 640 208 640 80
WIRE 336 224 224 224
WIRE 224 256 224 224
WIRE 224 384 224 336
WIRE 384 384 384 240
WIRE 384 384 224 384
WIRE 640 384 640 272
WIRE 640 384 384 384
WIRE 384 400 384 384
FLAG 384 400 0
FLAG 640 80 drain
SYMBOL nmos 336 144 R0
SYMATTR InstName M1
SYMATTR Value nch_tt
SYMATTR Value2 W=400n L=180n
SYMBOL voltage 224 240 R0
WINDOW 123 0 0 Left 0
WINDOW 39 0 0 Left 0
SYMATTR InstName Vgs1
SYMATTR Value 0.9
SYMBOL cap 624 208 R0
SYMATTR InstName C1
SYMATTR Value 1p
TEXT 312 -64 Left 2 !.include "TSMC180.lib"
TEXT 312 -24 Left 2 ;W = 400nm, L = 180nm
TEXT 680 64 Left 2 !.ic V(drain) = 0.9
TEXT 192 424 Left 2 !.tran 1m
TEXT -392 96 Left 2 !;.step param Vdd 0.5 1.8 0.1
