Version 4
SHEET 1 1284 680
WIRE 400 192 144 192
WIRE 144 256 144 192
WIRE 400 320 400 192
WIRE 96 336 -16 336
WIRE -16 368 -16 336
WIRE -16 496 -16 448
WIRE 144 496 144 352
WIRE 144 496 -16 496
WIRE 400 496 400 384
WIRE 400 496 144 496
WIRE 144 512 144 496
FLAG 144 512 0
FLAG 400 192 drain
SYMBOL nmos 96 256 R0
SYMATTR InstName M1
SYMATTR Value nch_tt
SYMATTR Value2 W=240n L=180n
SYMBOL voltage -16 352 R0
WINDOW 123 0 0 Left 0
WINDOW 39 0 0 Left 0
SYMATTR InstName Vgs
SYMATTR Value 0.65
SYMBOL cap 384 320 R0
SYMATTR InstName C1
SYMATTR Value 1p
TEXT 72 48 Left 2 !.include "TSMC180.lib"
TEXT 72 88 Left 2 ;W = 240nm, L = 180nm
TEXT 440 176 Left 2 !.ic V(drain) = 0.65
TEXT -48 536 Left 2 !.tran 1m
TEXT -632 208 Left 2 !;.step param Vdd 0.5 1.8 0.1
