Version 4
SHEET 1 880 680
WIRE 112 48 112 16
WIRE 112 48 -80 48
WIRE 368 48 112 48
WIRE 112 112 112 48
WIRE 64 128 48 128
WIRE -80 144 -80 128
WIRE 48 144 48 128
WIRE 48 144 -80 144
WIRE 368 176 368 48
WIRE 112 352 112 208
WIRE 368 352 368 240
WIRE 368 352 112 352
FLAG 368 352 drain
FLAG 112 16 0
SYMBOL cap 352 176 R0
SYMATTR InstName C1
SYMATTR Value 1p
SYMBOL pmos 64 208 M180
SYMATTR InstName M1
SYMBOL voltage -80 144 R180
WINDOW 0 24 96 Left 2
WINDOW 3 24 16 Left 2
SYMATTR InstName Vsg
SYMATTR Value 0.9
TEXT 40 -96 Left 2 !.include "TSMC180.lib"
TEXT 40 -56 Left 2 ;W = 400nm, L = 180nm
TEXT 416 360 Left 2 !.ic V(drain) = 0.9
TEXT -80 392 Left 2 !.tran 10m
TEXT -664 64 Left 2 !;.step param Vdd 0.5 1.8 0.1
