Version 4
SHEET 1 880 680
WIRE -672 -176 -704 -176
WIRE -512 -176 -592 -176
WIRE -192 -112 -640 -112
WIRE -64 -112 -192 -112
WIRE -960 -80 -1040 -80
WIRE -832 -80 -896 -80
WIRE -704 -80 -704 -176
WIRE -704 -80 -752 -80
WIRE -192 -64 -192 -112
WIRE -640 -48 -640 -112
WIRE -704 -32 -704 -80
WIRE -672 -32 -704 -32
WIRE -512 -16 -512 -176
WIRE -512 -16 -608 -16
WIRE -464 -16 -512 -16
WIRE -368 -16 -400 -16
WIRE -288 -16 -368 -16
WIRE -672 0 -704 0
WIRE -368 16 -368 -16
WIRE -960 32 -1104 32
WIRE -832 32 -896 32
WIRE -704 32 -704 0
WIRE -704 32 -752 32
WIRE -704 64 -704 32
WIRE -704 176 -704 144
WIRE -704 176 -752 176
WIRE -592 176 -704 176
WIRE -64 176 -64 -112
WIRE -64 176 -512 176
FLAG -192 16 0
FLAG -832 176 0
FLAG -1184 32 0
FLAG -1120 -80 0
FLAG -288 -16 Vo2
FLAG -368 96 0
FLAG -640 16 0
SYMBOL Opamps\\LT1013 -640 -80 R0
SYMATTR InstName U1
SYMBOL res -688 -160 R270
WINDOW 0 32 56 VTop 2
WINDOW 3 0 56 VBottom 2
SYMATTR InstName R1
SYMATTR Value 100k
SYMBOL res -848 -64 R270
WINDOW 0 32 56 VTop 2
WINDOW 3 0 56 VBottom 2
SYMATTR InstName R2
SYMATTR Value 25k
SYMBOL res -848 48 R270
WINDOW 0 32 56 VTop 2
WINDOW 3 0 56 VBottom 2
SYMATTR InstName R3
SYMATTR Value 25k
SYMBOL res -848 192 R270
WINDOW 0 32 56 VTop 2
WINDOW 3 0 56 VBottom 2
SYMATTR InstName R4
SYMATTR Value 100k
SYMBOL res -608 192 R270
WINDOW 0 32 56 VTop 2
WINDOW 3 0 56 VBottom 2
SYMATTR InstName R5
SYMATTR Value 100k
SYMBOL res -720 48 R0
SYMATTR InstName R6
SYMATTR Value 100k
SYMBOL res -384 0 R0
SYMATTR InstName R7
SYMATTR Value 10k
SYMBOL voltage -192 -80 R0
SYMATTR InstName VS1
SYMATTR Value 30
SYMBOL voltage -1024 -80 R90
WINDOW 0 -32 56 VBottom 2
WINDOW 3 32 56 VTop 2
WINDOW 123 60 56 VTop 2
WINDOW 39 0 0 Left 2
SYMATTR InstName V1
SYMATTR Value ""
SYMATTR Value2 AC 1
SYMBOL voltage -1088 32 R90
WINDOW 0 -32 56 VBottom 2
WINDOW 3 32 56 VTop 2
WINDOW 123 60 56 VTop 2
WINDOW 39 0 0 Left 2
SYMATTR InstName V2
SYMATTR Value ""
SYMATTR Value2 AC 1
SYMBOL cap -896 -96 R90
WINDOW 0 0 32 VBottom 2
WINDOW 3 32 32 VTop 2
SYMATTR InstName C1
SYMATTR Value 0.1µ
SYMBOL cap -896 16 R90
WINDOW 0 0 32 VBottom 2
WINDOW 3 32 32 VTop 2
SYMATTR InstName C2
SYMATTR Value 0.1µ
SYMBOL cap -400 -32 R90
WINDOW 0 0 32 VBottom 2
WINDOW 3 32 32 VTop 2
SYMATTR InstName C3
SYMATTR Value 0.1µ
TEXT -1208 232 Left 2 !.ac dec 100 1k 10k
